#======================================================================

# CRYSTAL DATA

#----------------------------------------------------------------------

data_VESTA_phase_1


_chemical_name_common                  '3D\Atomistic                          '
_cell_length_a                         3.76157
_cell_length_b                         3.76157
_cell_length_c                         12.93776
_cell_angle_alpha                      90
_cell_angle_beta                       90
_cell_angle_gamma                      90
_space_group_name_H-M_alt              'P 1'
_space_group_IT_number                 1

loop_
_space_group_symop_operation_xyz
   'x, y, z'

loop_
   _atom_site_label
   _atom_site_occupancy
   _atom_site_fract_x
   _atom_site_fract_y
   _atom_site_fract_z
   _atom_site_adp_type
   _atom_site_B_iso_or_equiv
   _atom_site_type_symbol
   Ge1        1.0     0.000000     -0.000000      0.156475     Biso  1.000000 Ge
   Ge2        1.0     0.000000     -0.000000      0.843525     Biso  1.000000 Ge
   Ge3        1.0     0.500000      0.500000      0.656475     Biso  1.000000 Ge
   Ge4        1.0     0.500000      0.500000      0.343525     Biso  1.000000 Ge
   Ge5        1.0     0.000000     -0.000000      0.500000     Biso  1.000000 Ge
   Ge6        1.0     0.500000      0.500000      0.000000     Biso  1.000000 Ge
   H1         1.0     0.107489     -0.000000      0.335493     Biso  1.000000 H
   H2         1.0     0.892511     -0.000000      0.335493     Biso  1.000000 H
   H3         1.0     0.000000      0.892511      0.664507     Biso  1.000000 H
   H4         1.0     0.000000      0.107489      0.664507     Biso  1.000000 H
   H5         1.0     0.607489      0.500000      0.835493     Biso  1.000000 H
   H6         1.0     0.392511      0.500000      0.835493     Biso  1.000000 H
   H7         1.0     0.500000      0.392511      0.164507     Biso  1.000000 H
   H8         1.0     0.500000      0.607489      0.164507     Biso  1.000000 H
   H9         1.0     0.714021     -0.000000      0.061443     Biso  1.000000 H
   H10        1.0     0.285979     -0.000000      0.061443     Biso  1.000000 H
   H11        1.0     0.000000      0.285979      0.938557     Biso  1.000000 H
   H12        1.0     0.000000      0.714021      0.938557     Biso  1.000000 H
   H13        1.0     0.214021      0.500000      0.561443     Biso  1.000000 H
   H14        1.0     0.785979      0.500000      0.561443     Biso  1.000000 H
   H15        1.0     0.500000      0.785979      0.438557     Biso  1.000000 H
   H16        1.0     0.500000      0.214021      0.438557     Biso  1.000000 H
   H17        1.0     0.000000      0.500000      0.168126     Biso  1.000000 H
   H18        1.0     0.500000     -0.000000      0.831874     Biso  1.000000 H
   H19        1.0     0.500000     -0.000000      0.668126     Biso  1.000000 H
   H20        1.0     0.000000      0.500000      0.331874     Biso  1.000000 H
   H21        1.0     0.000000      0.500000      0.250000     Biso  1.000000 H
   H22        1.0     0.500000     -0.000000      0.750000     Biso  1.000000 H
