#======================================================================

# CRYSTAL DATA

#----------------------------------------------------------------------

data_VESTA_phase_1


_chemical_name_common                  '3D\Atomistic                          '
_cell_length_a                         6.47848
_cell_length_b                         4.26733
_cell_length_c                         11.73110
_cell_angle_alpha                      90
_cell_angle_beta                       95.90411
_cell_angle_gamma                      90
_space_group_name_H-M_alt              'P 1'
_space_group_IT_number                 1

loop_
_space_group_symop_operation_xyz
   'x, y, z'

loop_
   _atom_site_label
   _atom_site_occupancy
   _atom_site_fract_x
   _atom_site_fract_y
   _atom_site_fract_z
   _atom_site_adp_type
   _atom_site_B_iso_or_equiv
   _atom_site_type_symbol
   H1         1.0     0.536387      0.750000      0.431479     Biso  1.000000 H
   H2         1.0     0.463613      0.250000      0.568521     Biso  1.000000 H
   H3         1.0     0.265799      0.750000      0.249882     Biso  1.000000 H
   H4         1.0     0.734201      0.250000      0.750118     Biso  1.000000 H
   H5         1.0     0.429459      0.750000      0.452855     Biso  1.000000 H
   H6         1.0     0.570541      0.250000      0.547145     Biso  1.000000 H
   H7         1.0     0.159430      0.750000      0.272465     Biso  1.000000 H
   H8         1.0     0.840570      0.250000      0.727535     Biso  1.000000 H
   H9         1.0     0.034587      0.750000      0.056677     Biso  1.000000 H
   H10        1.0     0.965413      0.250000      0.943323     Biso  1.000000 H
   H11        1.0     0.130469      0.750000      0.024211     Biso  1.000000 H
   H12        1.0     0.869531      0.250000      0.975789     Biso  1.000000 H
   H13        1.0     0.110070      0.250000      0.159586     Biso  1.000000 H
   H14        1.0     0.889930      0.750000      0.840414     Biso  1.000000 H
   H15        1.0     0.342974      0.250000      0.356793     Biso  1.000000 H
   H16        1.0     0.657027      0.750000      0.643207     Biso  1.000000 H
   H17        1.0     0.432731      0.250000      0.319605     Biso  1.000000 H
   H18        1.0     0.567269      0.750000      0.680395     Biso  1.000000 H
   H19        1.0     0.214812      0.250000      0.135454     Biso  1.000000 H
   H20        1.0     0.785188      0.750000      0.864546     Biso  1.000000 H
   In1        1.0     0.602388      0.750000      0.118036     Biso  1.000000 In
   In2        1.0     0.397612      0.250000      0.881964     Biso  1.000000 In
   In3        1.0     0.899065      0.250000      0.380740     Biso  1.000000 In
   In4        1.0     0.100935      0.750000      0.619260     Biso  1.000000 In
