#======================================================================

# CRYSTAL DATA

#----------------------------------------------------------------------

data_VESTA_phase_1


_chemical_name_common                  '3D\Atomistic                          '
_cell_length_a                         3.27389
_cell_length_b                         3.27389
_cell_length_c                         5.00058
_cell_angle_alpha                      90
_cell_angle_beta                       90
_cell_angle_gamma                      120
_space_group_name_H-M_alt              'P 1'
_space_group_IT_number                 1

loop_
_space_group_symop_operation_xyz
   'x, y, z'

loop_
   _atom_site_label
   _atom_site_occupancy
   _atom_site_fract_x
   _atom_site_fract_y
   _atom_site_fract_z
   _atom_site_adp_type
   _atom_site_B_iso_or_equiv
   _atom_site_type_symbol
   Sc1        1.0     0.666667      0.333333      0.250000     Biso  1.000000 Sc
   Sc2        1.0     0.333333      0.666667      0.750000     Biso  1.000000 Sc
   H1         1.0     0.155736      0.844264      0.437590     Biso  1.000000 H
   H2         1.0     0.844264      0.155736      0.562410     Biso  1.000000 H
   H3         1.0     0.155736      0.311471      0.437590     Biso  1.000000 H
   H4         1.0     0.844264      0.688529      0.562410     Biso  1.000000 H
   H5         1.0     0.688529      0.844264      0.437590     Biso  1.000000 H
   H6         1.0     0.311471      0.155736      0.562410     Biso  1.000000 H
   H7         1.0     0.844264      0.155736      0.937590     Biso  1.000000 H
   H8         1.0     0.155736      0.844264      0.062410     Biso  1.000000 H
   H9         1.0     0.844264      0.688529      0.937590     Biso  1.000000 H
   H10        1.0     0.155736      0.311471      0.062410     Biso  1.000000 H
   H11        1.0     0.311471      0.155736      0.937590     Biso  1.000000 H
   H12        1.0     0.688529      0.844264      0.062410     Biso  1.000000 H
   H13        1.0     0.333333      0.666667      0.146878     Biso  1.000000 H
   H14        1.0     0.666667      0.333333      0.853122     Biso  1.000000 H
   H15        1.0     0.666667      0.333333      0.646878     Biso  1.000000 H
   H16        1.0     0.333333      0.666667      0.353122     Biso  1.000000 H
   H17        1.0     0.000000      0.000000      0.750000     Biso  1.000000 H
   H18        1.0     0.000000      0.000000      0.250000     Biso  1.000000 H
