#======================================================================

# CRYSTAL DATA

#----------------------------------------------------------------------

data_VESTA_phase_1


_chemical_name_common                  '3D\Atomistic                          '
_cell_length_a                         8.52807
_cell_length_b                         3.17734
_cell_length_c                         3.11573
_cell_angle_alpha                      90
_cell_angle_beta                       90
_cell_angle_gamma                      90
_space_group_name_H-M_alt              'P 1'
_space_group_IT_number                 1

loop_
_space_group_symop_operation_xyz
   'x, y, z'

loop_
   _atom_site_label
   _atom_site_occupancy
   _atom_site_fract_x
   _atom_site_fract_y
   _atom_site_fract_z
   _atom_site_adp_type
   _atom_site_B_iso_or_equiv
   _atom_site_type_symbol
   H1         1.0     0.111909      0.500000      0.195287     Biso  1.000000 H
   H2         1.0     0.888091      0.500000      0.804713     Biso  1.000000 H
   H3         1.0     0.888091      0.500000      0.195287     Biso  1.000000 H
   H4         1.0     0.111909      0.500000      0.804713     Biso  1.000000 H
   H5         1.0     0.611909     -0.000000      0.695287     Biso  1.000000 H
   H6         1.0     0.388091      0.000000      0.304713     Biso  1.000000 H
   H7         1.0     0.388091     -0.000000      0.695287     Biso  1.000000 H
   H8         1.0     0.611909      0.000000      0.304713     Biso  1.000000 H
   H9         1.0     0.712311      0.500000      0.354351     Biso  1.000000 H
   H10        1.0     0.287689      0.500000      0.645649     Biso  1.000000 H
   H11        1.0     0.287689      0.500000      0.354351     Biso  1.000000 H
   H12        1.0     0.712311      0.500000      0.645649     Biso  1.000000 H
   H13        1.0     0.212311      0.000000      0.854351     Biso  1.000000 H
   H14        1.0     0.787689     -0.000000      0.145649     Biso  1.000000 H
   H15        1.0     0.787689      0.000000      0.854351     Biso  1.000000 H
   H16        1.0     0.212311     -0.000000      0.145649     Biso  1.000000 H
   H17        1.0     0.144499      0.000000      0.500000     Biso  1.000000 H
   H18        1.0     0.855501      0.000000      0.500000     Biso  1.000000 H
   H19        1.0     0.644499      0.500000     -0.000000     Biso  1.000000 H
   H20        1.0     0.355501      0.500000     -0.000000     Biso  1.000000 H
   H21        1.0     0.405761     -0.000000     -0.000000     Biso  1.000000 H
   H22        1.0     0.594239     -0.000000     -0.000000     Biso  1.000000 H
   H23        1.0     0.905761      0.500000      0.500000     Biso  1.000000 H
   H24        1.0     0.094239      0.500000      0.500000     Biso  1.000000 H
   Sc1        1.0     0.500000      0.500000      0.500000     Biso  1.000000 Sc
   Sc2        1.0    -0.000000      0.000000     -0.000000     Biso  1.000000 Sc
