#======================================================================

# CRYSTAL DATA

#----------------------------------------------------------------------

data_VESTA_phase_1


_chemical_name_common                  ''
_cell_length_a                         2.99860
_cell_length_b                         4.32740
_cell_length_c                         7.60050
_cell_angle_alpha                      90
_cell_angle_beta                       90
_cell_angle_gamma                      90
_space_group_name_H-M_alt              'P 1'
_space_group_IT_number                 1

loop_
_space_group_symop_operation_xyz
   'x, y, z'

loop_
   _atom_site_label
   _atom_site_occupancy
   _atom_site_fract_x
   _atom_site_fract_y
   _atom_site_fract_z
   _atom_site_adp_type
   _atom_site_B_iso_or_equiv
   _atom_site_type_symbol
   S1         1.0     0.000000      0.371000      0.615000     Biso  1.000000 S
   S2         1.0     0.000000      0.629000      0.385000     Biso  1.000000 S
   S3         1.0     0.000000      0.129000      0.115000     Biso  1.000000 S
   S4         1.0     0.000000      0.871000      0.885000     Biso  1.000000 S
   S5         1.0     0.500000      0.871000      0.615000     Biso  1.000000 S
   S6         1.0     0.500000      0.129000      0.385000     Biso  1.000000 S
   S7         1.0     0.500000      0.629000      0.115000     Biso  1.000000 S
   S8         1.0     0.500000      0.371000      0.885000     Biso  1.000000 S
   H1         1.0     0.000000      0.372000      0.270000     Biso  1.000000 H
   H2         1.0     0.000000      0.628000      0.730000     Biso  1.000000 H
   H3         1.0     0.000000      0.128000      0.770000     Biso  1.000000 H
   H4         1.0     0.000000      0.872000      0.230000     Biso  1.000000 H
   H5         1.0     0.500000      0.872000      0.270000     Biso  1.000000 H
   H6         1.0     0.500000      0.128000      0.730000     Biso  1.000000 H
   H7         1.0     0.500000      0.628000      0.770000     Biso  1.000000 H
   H8         1.0     0.500000      0.372000      0.230000     Biso  1.000000 H
   H9         1.0     0.000000      0.600000      0.092000     Biso  1.000000 H
   H10        1.0     0.000000      0.400000      0.908000     Biso  1.000000 H
   H11        1.0     0.000000      0.900000      0.592000     Biso  1.000000 H
   H12        1.0     0.000000      0.100000      0.408000     Biso  1.000000 H
   H13        1.0     0.500000      0.100000      0.092000     Biso  1.000000 H
   H14        1.0     0.500000      0.900000      0.908000     Biso  1.000000 H
   H15        1.0     0.500000      0.400000      0.592000     Biso  1.000000 H
   H16        1.0     0.500000      0.600000      0.408000     Biso  1.000000 H
